5
Properties=species:S:1:pos:R:3 pbc="F F F"
C        0.00000000       0.00000000       0.00000000
H        0.62866351       0.62866351       0.62866351
H       -0.62866351      -0.62866351       0.62866351
H        0.62866351      -0.62866351      -0.62866351
H       -0.62866351       0.62866351      -0.62866351
